scripts/data/pwf/EAC/EAC_base.PWF
TITU
                                                                                
DBAR
(Num)OETGb(   nome   )Gl( V)( A)( Pg)( Qg)( Qn)( Qm)(Bc  )( Pl)( Ql)( Sh)Are(Vf)M(1)(2)(3)(4)(5)(6)(7)(8)(9)(10
 6930 L2 FABUNA--RO230 51000  0.  .94-190.-999999999                     4311000                                   
 6943 L  NRBRAA2-AC013 61093 -1.                                         4311000                                   
 6944 L  URBRAA2-AC000 61093 -1.                                         43110001                                  
 6945 L  URBRAN3-AC000 61070-2.9                                         43110001                                  
 6946 L  NRBRAN3-AC013 61070-2.9                                         4311000                                   
 6950 L  FR.BRAN-AC230 51085-.65138.841.78                               4311000                                   
 6951 L  GR.BRAN-AC138 5 953-.99                                         4321000                                   
 6952 L  IR.BRAN-AC069 5 988-2.8                                         4321000                                   
 6953 L  URBRAN1-AC000 61071-2.8                                         43110001                                  
 6954 L  URBRAN2-AC000 61071-2.8                                         43110001                                  
 6956 L  URBRAA1-AC000 61092 -1.                                         43110001                                  
 6957 L  NRBRAN1-AC013 61071-2.8                                         4311000                                   
 6958 L  NRBRAN2-AC013 61071-2.8                                         4311000                                   
 6959 L  NRBRAA1-AC013 61092 -1.                                         4311000                                   
 6963 L  URBRAN4-AC000 61070 -3.                                         43110001                                  
 6964 L  NRBRAN4-AC013 61070 -3.                                         4311000                                   
 6965 L  ITANGAR-AC069 51036-5.1                            39. 13.7     4321000                                   
 6967 L  IS.FRAN-AC069 51054-3.3                           30.3 10.6     4321000                                   
 6969 L  IS.MADU-AC069 51020-9.1                            5.3  1.9     4321000                                   
 6975 L  ITAQUA1-AC069 51041-4.5                           33.9 11.9     4321000                                   
 6982 L  GEPITAC-AC138 51040-4.7                            11.  3.9     4321000                                   
 7001 D1 VRACRE2UTE000 5 993  0.   0.   0.   0.   0.                     4321000                                   
 7004 L  IALTOAL-AC069 51041-4.6                           15.8  5.5     4321000                                   
 7009 L  IASSISB-AC069 51058-5.6                             .9   .3     4321000                                   
 7014 L  IMANOEL-AC069 51018-9.8                            1.1   .4     4321000                                   
 7027 L  IEPITAC-AC069 51001-4.9                                         4321000                                   
 7028 L  IPEIXES-AC069 51060-2.8                                         4321000                                   
 7844 L  NRBRAN-CER013 61085-.65                                         4311000                                   
99999
DLIN
(De )d O d(Pa )NcEP ( R% )( X% )(Mvar)(Tap)(Tmn)(Tmx)(Phs)(Bc  )(Cn)(Ce)Ns(Cq)(1)(2)(3)(4)(5)(6)(7)(8)(9)(10
 6930      6950 1    2.30516.894 89.93                          477.477.  477.                                
 6930      6950 2    2.20816.788  87.1                          557.696.  696.                                
 6943      6944 2         25.164         1.                      18. 18.   18.                                
 6946      6945 3          9.475         1.                      33. 33.  558.                                
 6950      6944 2         13.109         1.                      55. 57.   66.                                
 6950      6945 3         13.995         1.                     100.120.  140.                                
 6950      6953 1         13.995         1.                     100.103.  120.                                
 6950      6954 2          13.93         1.                     100.103.  120.                                
 6950      6956 1         12.355         1.                      55. 57.   66.                                
 6950      6963 4          14.75         1.                     100.103.  120.                                
 6950      7844 1          22.07         1.                     99999999  9999                                
 6951      6944 2         -1.508      .9461   .9  1.1       6951 55. 57.17 66.                                
 6951      6956 1          -.755      .9461   .9  1.1       6951 55. 57.17 66.                                
 6951      6982 1    15.15 51.58 14.18                          110.139.  110.                                
 6952      6945 3           -.78      .9892   .9  1.1       6952100.120.17140.                                
 6952      6953 1          -.255      .9892   .9  1.1       6952100.103.17120.                                
 6952      6954 2           -.26      .9892   .9  1.1       6952100.103.17120.                                
 6952      6963 4          -1.25      .9892   .9  1.1       6952100.103.17120.                                
 6952      6965 1   2.897417.337.36513                           91.114.   91.                                
 6952      6967 1   1.29937.7747.16374                           91.114.   91.                                
 6952      6967 2   1.29937.7747.16374                           91.114.   91.                                
 6952      6975 1   1.30087.7835 .1639                           91.114.   20.                                
 6952      7004 1   5.136416.799 .2994                           61. 76.   76.                                
 6952      7028 1   9.909224.209 .3934                           47. 59.   47.                                
 6957      6953 1          9.475         1.                      33. 33.   33.                                
 6958      6954 2           9.49         1.                      33. 33.   55.                                
 6959      6956 1         25.627         1.                      18. 18.   18.                                
 6964      6963 4          10.75         1.                      33. 33.  100.                                
 6965      7001 1D           30.         1.                      20. 23.   50.                                
 6969      7014 1   50.003  96.4 1.566                           42. 53.   53.                                
 6975      6965 1   1.6129 9.651 .2033                           91.114.   91.                                
 6982      7027 1          68.56      .9908   .9  1.1      -702712.512.51612.5                                
 6982      7027 2          68.56      .9908   .9  1.1      -702712.512.51612.5                                
 7004      6969 1   38.951128.072.2978                           61. 76.   76.                                
 7027      7009 1   57.204110.391.7955                           53. 53.   53.                                
99999
DGBT
(G ( kV)
 V  992.
 U  991.
 F  230.
 G  138.
 I   69.
 N  13.8
99999
FIM
